
OS:Version,
  {507686de-bf27-4f0d-9ebb-e1569367a260}, !- Handle
  1.8.0;                                  !- Version Identifier

OS:Site,
  {3e625b7e-924e-4a01-a257-1da22639087d}, !- Handle
  Houston Bush Intercontinental_TX_USA Design_Conditions, !- Name
  30,                                     !- Latitude {deg}
  -95.37,                                 !- Longitude {deg}
  -6,                                     !- Time Zone {hr}
  29,                                     !- Elevation {m}
  City;                                   !- Terrain

OS:SimulationControl,
  {dce4b782-386e-414a-91e7-351468c9c092}, !- Handle
  Yes,                                    !- Do Zone Sizing Calculation
  Yes,                                    !- Do System Sizing Calculation
  Yes,                                    !- Do Plant Sizing Calculation
  No,                                     !- Run Simulation for Sizing Periods
  Yes,                                    !- Run Simulation for Weather File Run Periods
  0.04,                                   !- Loads Convergence Tolerance Value
  0.2,                                    !- Temperature Convergence Tolerance Value {deltaC}
  FullInteriorAndExterior,                !- Solar Distribution
  25,                                     !- Maximum Number of Warmup Days
  6;                                      !- Minimum Number of Warmup Days

OS:ThermalZone,
  {a4bfffe6-e65d-44d1-9999-36241c7c2a16}, !- Handle
  FirstFloor_Plenum Thermal Zone,         !- Name
  1,                                      !- Multiplier
  ,                                       !- Ceiling Height {m}
  ,                                       !- Volume {m3}
  ,                                       !- Floor Area {m2}
  ,                                       !- Zone Inside Convection Algorithm
  ,                                       !- Zone Outside Convection Algorithm
  ,                                       !- Zone Conditioning Equipment List Name
  {c4195086-d318-4864-b085-acc43e9e802c}, !- Zone Air Inlet Port List
  {907eaacf-4dba-4144-98aa-2ae05ccb0c97}, !- Zone Air Exhaust Port List
  {1233f989-5f87-485c-9e77-55be831f7e85}, !- Zone Air Node Name
  ,                                       !- Zone Return Air Node Name
  ,                                       !- Primary Daylighting Control Name
  ,                                       !- Fraction of Zone Controlled by Primary Daylighting Control
  ,                                       !- Secondary Daylighting Control Name
  ,                                       !- Fraction of Zone Controlled by Secondary Daylighting Control
  ,                                       !- Illuminance Map Name
  ,                                       !- Group Rendering Name
  ,                                       !- Thermostat Name
  No;                                     !- Use Ideal Air Loads

OS:Node,
  {4a7bae79-24c1-4dbf-a41c-8a075a17cadd}, !- Handle
  {43f7515a-d601-46a6-bcfb-c850d09404ce}, !- Name
  {1233f989-5f87-485c-9e77-55be831f7e85}, !- Inlet Port
  ;                                       !- Outlet Port

OS:Connection,
  {1233f989-5f87-485c-9e77-55be831f7e85}, !- Handle
  {261d0c8d-1341-4efb-b646-477315513cd5}, !- Name
  {a4bfffe6-e65d-44d1-9999-36241c7c2a16}, !- Source Object
  11,                                     !- Outlet Port
  {4a7bae79-24c1-4dbf-a41c-8a075a17cadd}, !- Target Object
  2;                                      !- Inlet Port

OS:PortList,
  {c4195086-d318-4864-b085-acc43e9e802c}, !- Handle
  {45e219cb-9c47-4615-aacb-0dbcb1e4c9e8}, !- Name
  {a4bfffe6-e65d-44d1-9999-36241c7c2a16}; !- HVAC Component

OS:PortList,
  {907eaacf-4dba-4144-98aa-2ae05ccb0c97}, !- Handle
  {661a577b-f22a-486a-ba8e-e1dae13c2ef4}, !- Name
  {a4bfffe6-e65d-44d1-9999-36241c7c2a16}; !- HVAC Component

OS:Sizing:Zone,
  {e25b8913-4049-4808-9650-03614384f6b7}, !- Handle
  {a4bfffe6-e65d-44d1-9999-36241c7c2a16}, !- Zone or ZoneList Name
  12.8,                                   !- Zone Cooling Design Supply Air Temperature {C}
  50,                                     !- Zone Heating Design Supply Air Temperature {C}
  0.0085,                                 !- Zone Cooling Design Supply Air Humidity Ratio {kg-H2O/kg-air}
  0.008,                                  !- Zone Heating Design Supply Air Humidity Ratio {kg-H2O/kg-air}
  ,                                       !- Zone Heating Sizing Factor
  ,                                       !- Zone Cooling Sizing Factor
  Flow/Zone,                              !- Cooling Design Air Flow Method
  1.04,                                   !- Cooling Design Air Flow Rate {m3/s}
  ,                                       !- Cooling Minimum Air Flow per Zone Floor Area {m3/s-m2}
  ,                                       !- Cooling Minimum Air Flow {m3/s}
  0,                                      !- Cooling Minimum Air Flow Fraction
  Flow/Zone,                              !- Heating Design Air Flow Method
  1.04,                                   !- Heating Design Air Flow Rate {m3/s}
  ,                                       !- Heating Maximum Air Flow per Zone Floor Area {m3/s-m2}
  ,                                       !- Heating Maximum Air Flow {m3/s}
  0,                                      !- Heating Maximum Air Flow Fraction
  1,                                      !- Design Zone Air Distribution Effectiveness in Cooling Mode
  1;                                      !- Design Zone Air Distribution Effectiveness in Heating Mode

OS:ZoneHVAC:EquipmentList,
  {eaa66a3b-7c0e-44ee-9ba2-5d003b31581a}, !- Handle
  {c2db091f-6939-4b7b-b941-4944ffd715d6}, !- Name
  {a4bfffe6-e65d-44d1-9999-36241c7c2a16}; !- Thermal Zone

OS:Space,
  {a791e343-c04f-493f-b119-5f876cc17449}, !- Handle
  FirstFloor_Plenum,                      !- Name
  {852d7ec0-75a6-4eb2-adae-03de2ef79db1}, !- Space Type Name
  ,                                       !- Default Construction Set Name
  ,                                       !- Default Schedule Set Name
  0,                                      !- Direction of Relative North {deg}
  0,                                      !- X Origin {m}
  0,                                      !- Y Origin {m}
  0,                                      !- Z Origin {m}
  ,                                       !- Building Story Name
  {a4bfffe6-e65d-44d1-9999-36241c7c2a16}, !- Thermal Zone Name
  No,                                     !- Part of Total Floor Area
  {293e0c2c-2273-4522-bac7-22fb3a32c338}; !- Design Specification Outdoor Air Object Name

OS:Surface,
  {4c5c2e4e-6ad8-4913-934b-245a443af5b8}, !- Handle
  Perimeter_bot_ZN_4_Floor,               !- Name
  Floor,                                  !- Surface Type
  {5c491e27-20c3-4cb2-87d1-474fb5919a8b}, !- Construction Name
  {37ce9555-3ae5-4455-a608-cef524cf6ae2}, !- Space Name
  Ground,                                 !- Outside Boundary Condition
  ,                                       !- Outside Boundary Condition Object
  NoSun,                                  !- Sun Exposure
  NoWind,                                 !- Wind Exposure
  ,                                       !- View Factor to Ground
  ,                                       !- Number of Vertices
  0, 33.2738, 0,                          !- X,Y,Z Vertex 1 {m}
  4.5732, 28.7006, 0,                     !- X,Y,Z Vertex 2 {m}
  4.5732, 4.5732, 0,                      !- X,Y,Z Vertex 3 {m}
  0, 0, 0;                                !- X,Y,Z Vertex 4 {m}

OS:Construction,
  {5c491e27-20c3-4cb2-87d1-474fb5919a8b}, !- Handle
  ext-slab,                               !- Name
  ,                                       !- Surface Rendering Name
  {116f97f3-55c3-40c5-9377-de9c4e57a55e}, !- Layer 1
  {e0bc34db-c08d-4282-8dcc-ba33afc84689}; !- Layer 2

OS:Material,
  {116f97f3-55c3-40c5-9377-de9c4e57a55e}, !- Handle
  HW CONCRETE,                            !- Name
  Rough,                                  !- Roughness
  0.1016,                                 !- Thickness {m}
  1.311,                                  !- Conductivity {W/m-K}
  2240,                                   !- Density {kg/m3}
  836.8,                                  !- Specific Heat {J/kg-K}
  0.9,                                    !- Thermal Absorptance
  0.7,                                    !- Solar Absorptance
  0.7;                                    !- Visible Absorptance

OS:Material:NoMass,
  {e0bc34db-c08d-4282-8dcc-ba33afc84689}, !- Handle
  CP02 CARPET PAD,                        !- Name
  VeryRough,                              !- Roughness
  0.2165,                                 !- Thermal Resistance {m2-K/W}
  0.9,                                    !- Thermal Absorptance
  0.7,                                    !- Solar Absorptance
  0.8;                                    !- Visible Absorptance

OS:ThermalZone,
  {f0a4f407-6a13-4b29-a2d1-9e48ea29aeb5}, !- Handle
  Perimeter_bot_ZN_4 Thermal Zone,        !- Name
  1,                                      !- Multiplier
  ,                                       !- Ceiling Height {m}
  ,                                       !- Volume {m3}
  ,                                       !- Floor Area {m2}
  ,                                       !- Zone Inside Convection Algorithm
  ,                                       !- Zone Outside Convection Algorithm
  ,                                       !- Zone Conditioning Equipment List Name
  {be7b4f77-0d71-4db5-ba30-5892e8e5fd39}, !- Zone Air Inlet Port List
  {9c8d3934-8920-4100-bf28-47db9b3ac856}, !- Zone Air Exhaust Port List
  {5a204818-6f89-485f-91f1-c63f48a8f1d5}, !- Zone Air Node Name
  {0048c6e3-d008-434a-9e0c-69bdb1a7006a}, !- Zone Return Air Node Name
  ,                                       !- Primary Daylighting Control Name
  ,                                       !- Fraction of Zone Controlled by Primary Daylighting Control
  ,                                       !- Secondary Daylighting Control Name
  ,                                       !- Fraction of Zone Controlled by Secondary Daylighting Control
  ,                                       !- Illuminance Map Name
  ,                                       !- Group Rendering Name
  {855543bf-9e22-4f49-bbd2-62782ec0dd47}, !- Thermostat Name
  No;                                     !- Use Ideal Air Loads

OS:Node,
  {0e5a3fdf-b40d-4c40-ae85-42705d9e3cba}, !- Handle
  {c0d29fad-9a05-445e-bf8b-1ef30dcf9083}, !- Name
  {5a204818-6f89-485f-91f1-c63f48a8f1d5}, !- Inlet Port
  ;                                       !- Outlet Port

OS:Connection,
  {5a204818-6f89-485f-91f1-c63f48a8f1d5}, !- Handle
  {81e4d4c1-2ee1-4f86-afab-cf4a7381d0f5}, !- Name
  {f0a4f407-6a13-4b29-a2d1-9e48ea29aeb5}, !- Source Object
  11,                                     !- Outlet Port
  {0e5a3fdf-b40d-4c40-ae85-42705d9e3cba}, !- Target Object
  2;                                      !- Inlet Port

OS:PortList,
  {be7b4f77-0d71-4db5-ba30-5892e8e5fd39}, !- Handle
  {2b9cedf9-9aab-43c6-86d0-a77c3a4bdd46}, !- Name
  {f0a4f407-6a13-4b29-a2d1-9e48ea29aeb5}, !- HVAC Component
  {9093267b-31f2-48c9-9d78-6c90475c09e5}, !- Port 1
  {2f9fa689-1fb0-438e-9efb-a40f7f903ad4}; !- Port 2

OS:PortList,
  {9c8d3934-8920-4100-bf28-47db9b3ac856}, !- Handle
  {43bf3660-db59-478e-ba0e-14bd7e42d622}, !- Name
  {f0a4f407-6a13-4b29-a2d1-9e48ea29aeb5}, !- HVAC Component
  {6dbd2369-a524-4b12-b84a-d80ea16adf28}; !- Port 1

OS:Sizing:Zone,
  {d04cbea3-6621-4a6f-b6c7-11b84c57a5e4}, !- Handle
  {f0a4f407-6a13-4b29-a2d1-9e48ea29aeb5}, !- Zone or ZoneList Name
  12.8,                                   !- Zone Cooling Design Supply Air Temperature {C}
  50,                                     !- Zone Heating Design Supply Air Temperature {C}
  0.0085,                                 !- Zone Cooling Design Supply Air Humidity Ratio {kg-H2O/kg-air}
  0.008,                                  !- Zone Heating Design Supply Air Humidity Ratio {kg-H2O/kg-air}
  ,                                       !- Zone Heating Sizing Factor
  ,                                       !- Zone Cooling Sizing Factor
  DesignDay,                              !- Cooling Design Air Flow Method
  0,                                      !- Cooling Design Air Flow Rate {m3/s}
  ,                                       !- Cooling Minimum Air Flow per Zone Floor Area {m3/s-m2}
  ,                                       !- Cooling Minimum Air Flow {m3/s}
  0,                                      !- Cooling Minimum Air Flow Fraction
  DesignDay,                              !- Heating Design Air Flow Method
  0,                                      !- Heating Design Air Flow Rate {m3/s}
  ,                                       !- Heating Maximum Air Flow per Zone Floor Area {m3/s-m2}
  ,                                       !- Heating Maximum Air Flow {m3/s}
  0,                                      !- Heating Maximum Air Flow Fraction
  1,                                      !- Design Zone Air Distribution Effectiveness in Cooling Mode
  1;                                      !- Design Zone Air Distribution Effectiveness in Heating Mode

OS:ZoneHVAC:EquipmentList,
  {089b1ca1-0163-4e44-88ae-e239d993b17c}, !- Handle
  {9b666371-215f-45a7-a41c-114b0afa2bd8}, !- Name
  {f0a4f407-6a13-4b29-a2d1-9e48ea29aeb5}, !- Thermal Zone
  {6f8837b9-6233-4106-acee-26c6805a1a57}, !- Zone Equipment 1
  1,                                      !- Zone Equipment Cooling Sequence 1
  1,                                      !- Zone Equipment Heating or No-Load Sequence 1
  {90fa7757-b8dc-4d50-9946-945f960c60cf}, !- Zone Equipment 2
  2,                                      !- Zone Equipment Cooling Sequence 2
  2;                                      !- Zone Equipment Heating or No-Load Sequence 2

OS:Space,
  {37ce9555-3ae5-4455-a608-cef524cf6ae2}, !- Handle
  Perimeter_bot_ZN_4,                     !- Name
  {4cbfdc5a-a589-4dd9-ab24-cda7e8acd356}, !- Space Type Name
  ,                                       !- Default Construction Set Name
  ,                                       !- Default Schedule Set Name
  0,                                      !- Direction of Relative North {deg}
  0,                                      !- X Origin {m}
  0,                                      !- Y Origin {m}
  0,                                      !- Z Origin {m}
  {0bd1c60b-6e7c-4378-b546-7adda0b56eb0}, !- Building Story Name
  {f0a4f407-6a13-4b29-a2d1-9e48ea29aeb5}, !- Thermal Zone Name
  Yes,                                    !- Part of Total Floor Area
  {7941dc6a-dd82-4cd1-98c9-bbd1c209f921}; !- Design Specification Outdoor Air Object Name

OS:ThermostatSetpoint:DualSetpoint,
  {855543bf-9e22-4f49-bbd2-62782ec0dd47}, !- Handle
  {a40f30d1-b529-4039-95c6-ebdf26042be7}, !- Name
  {9c308cb7-176b-4229-818d-5be43cfb0949}, !- Heating Setpoint Temperature Schedule Name
  {5de6a709-cdd7-4c8e-b9a6-d0b356eca21e}; !- Cooling Setpoint Temperature Schedule Name

OS:Schedule:Compact,
  {9c308cb7-176b-4229-818d-5be43cfb0949}, !- Handle
  HTGSETP_SCH,                            !- Name
  {cd0873ca-91ff-4c6b-8f3a-31ea21a9bd03}, !- Schedule Type Limits Name
  Through: 12/31,                         !- Field 1
  For: Weekdays,                          !- Field 2
  Until: 06:00,                           !- Field 3
  15.6,                                   !- Field 4
  Until: 22:00,                           !- Field 5
  21,                                     !- Field 6
  Until: 24:00,                           !- Field 7
  15.6,                                   !- Field 8
  For SummerDesignDay,                    !- Field 9
  Until: 24:00,                           !- Field 10
  15.6,                                   !- Field 11
  For: Weekends,                          !- Field 12
  Until: 24:00,                           !- Field 13
  15.6,                                   !- Field 14
  For: WinterDesignDay,                   !- Field 15
  Until: 24:00,                           !- Field 16
  21,                                     !- Field 17
  For: AllOtherDays,                      !- Field 18
  Until: 24:00,                           !- Field 19
  15.6;                                   !- Field 20

OS:ScheduleTypeLimits,
  {cd0873ca-91ff-4c6b-8f3a-31ea21a9bd03}, !- Handle
  Temperature,                            !- Name
  -60,                                    !- Lower Limit Value {BasedOnField A4}
  200,                                    !- Upper Limit Value {BasedOnField A4}
  CONTINUOUS,                             !- Numeric Type
  Temperature;                            !- Unit Type

OS:Schedule:Compact,
  {5de6a709-cdd7-4c8e-b9a6-d0b356eca21e}, !- Handle
  CLGSETP_SCH,                            !- Name
  {cd0873ca-91ff-4c6b-8f3a-31ea21a9bd03}, !- Schedule Type Limits Name
  Through: 12/31,                         !- Field 1
  For: Weekdays SummerDesignDay,          !- Field 2
  Until: 06:00,                           !- Field 3
  26.7,                                   !- Field 4
  Until: 22:00,                           !- Field 5
  24,                                     !- Field 6
  Until: 24:00,                           !- Field 7
  26.7,                                   !- Field 8
  For: Weekends WinterDesignDay,          !- Field 9
  Until: 24:00,                           !- Field 10
  26.7,                                   !- Field 11
  For: AllOtherDays,                      !- Field 12
  Until: 24:00,                           !- Field 13
  26.7;                                   !- Field 14

OS:Lights:Definition,
  {8545a236-64c3-4c9c-a4b4-9cb3ed2a2809}, !- Handle
  Perimeter_mid_ZN_2_Lights Definition,   !- Name
  Watts/Area,                             !- Design Level Calculation Method
  ,                                       !- Lighting Level {W}
  13.9930835417226,                       !- Watts per Space Floor Area {W/m2}
  ,                                       !- Watts per Person {W/person}
  0.7,                                    !- Fraction Radiant
  0.2,                                    !- Fraction Visible
  0,                                      !- Return Air Fraction
  No;                                     !- Return Air Fraction Calculated from Plenum Temperature

OS:Lights,
  {92bd5e04-3521-4c8a-a882-abf040916ff7}, !- Handle
  Perimeter_mid_ZN_2_Lights,              !- Name
  {8545a236-64c3-4c9c-a4b4-9cb3ed2a2809}, !- Lights Definition Name
  {258a5742-ab11-4a77-a230-d0a2caa465a5}, !- Space or SpaceType Name
  {2f579a61-40a3-4496-8111-904034d2b691}, !- Schedule Name
  1,                                      !- Fraction Replaceable
  ,                                       !- Multiplier
  General Lights;                         !- End-Use Subcategory

OS:ThermalZone,
  {cbec7f6d-925e-4ee2-82c1-3d5020a1d333}, !- Handle
  Perimeter_mid_ZN_2 Thermal Zone,        !- Name
  1,                                      !- Multiplier
  ,                                       !- Ceiling Height {m}
  ,                                       !- Volume {m3}
  ,                                       !- Floor Area {m2}
  ,                                       !- Zone Inside Convection Algorithm
  ,                                       !- Zone Outside Convection Algorithm
  ,                                       !- Zone Conditioning Equipment List Name
  {844593d5-d616-477e-97ed-9538f1951438}, !- Zone Air Inlet Port List
  {b3ba78f7-0564-4b32-9549-a8e13f57b711}, !- Zone Air Exhaust Port List
  {350aeadc-923d-4bf5-8206-bd5d4a125557}, !- Zone Air Node Name
  {d05f7292-dd00-4663-bda2-9ac51f029a6a}, !- Zone Return Air Node Name
  ,                                       !- Primary Daylighting Control Name
  ,                                       !- Fraction of Zone Controlled by Primary Daylighting Control
  ,                                       !- Secondary Daylighting Control Name
  ,                                       !- Fraction of Zone Controlled by Secondary Daylighting Control
  ,                                       !- Illuminance Map Name
  ,                                       !- Group Rendering Name
  {57c69d6c-ef44-45f7-b1ce-2ae229cd02e7}, !- Thermostat Name
  No;                                     !- Use Ideal Air Loads

OS:Node,
  {3ec33def-63c6-4b9e-bf75-d73737f07e0a}, !- Handle
  {df928e67-1d0e-4c5e-afc3-0a3ceccb5605}, !- Name
  {350aeadc-923d-4bf5-8206-bd5d4a125557}, !- Inlet Port
  ;                                       !- Outlet Port

OS:Connection,
  {350aeadc-923d-4bf5-8206-bd5d4a125557}, !- Handle
  {87425fce-41ac-4f9f-b70d-73e60e309d9d}, !- Name
  {cbec7f6d-925e-4ee2-82c1-3d5020a1d333}, !- Source Object
  11,                                     !- Outlet Port
  {3ec33def-63c6-4b9e-bf75-d73737f07e0a}, !- Target Object
  2;                                      !- Inlet Port

OS:PortList,
  {844593d5-d616-477e-97ed-9538f1951438}, !- Handle
  {e053f2bb-5c0e-4e9b-b946-b7807082153f}, !- Name
  {cbec7f6d-925e-4ee2-82c1-3d5020a1d333}, !- HVAC Component
  {20828c05-d116-4cae-ad62-60fa0475d723}, !- Port 1
  {415887e7-d8ab-429c-b8d0-bdf88c8bcf8e}; !- Port 2

OS:PortList,
  {b3ba78f7-0564-4b32-9549-a8e13f57b711}, !- Handle
  {aa698cb0-6e77-4756-9fd2-f00709c90d31}, !- Name
  {cbec7f6d-925e-4ee2-82c1-3d5020a1d333}, !- HVAC Component
  {01e75619-aeff-4584-b93d-509ef998b8c7}; !- Port 1

OS:Sizing:Zone,
  {0cfcd4ce-733c-4775-b961-50b5b959de05}, !- Handle
  {cbec7f6d-925e-4ee2-82c1-3d5020a1d333}, !- Zone or ZoneList Name
  12.8,                                   !- Zone Cooling Design Supply Air Temperature {C}
  50,                                     !- Zone Heating Design Supply Air Temperature {C}
  0.0085,                                 !- Zone Cooling Design Supply Air Humidity Ratio {kg-H2O/kg-air}
  0.008,                                  !- Zone Heating Design Supply Air Humidity Ratio {kg-H2O/kg-air}
  ,                                       !- Zone Heating Sizing Factor
  ,                                       !- Zone Cooling Sizing Factor
  DesignDay,                              !- Cooling Design Air Flow Method
  0,                                      !- Cooling Design Air Flow Rate {m3/s}
  ,                                       !- Cooling Minimum Air Flow per Zone Floor Area {m3/s-m2}
  ,                                       !- Cooling Minimum Air Flow {m3/s}
  0,                                      !- Cooling Minimum Air Flow Fraction
  DesignDay,                              !- Heating Design Air Flow Method
  0,                                      !- Heating Design Air Flow Rate {m3/s}
  ,                                       !- Heating Maximum Air Flow per Zone Floor Area {m3/s-m2}
  ,                                       !- Heating Maximum Air Flow {m3/s}
  0,                                      !- Heating Maximum Air Flow Fraction
  1,                                      !- Design Zone Air Distribution Effectiveness in Cooling Mode
  1;                                      !- Design Zone Air Distribution Effectiveness in Heating Mode

OS:ZoneHVAC:EquipmentList,
  {38f90787-d04a-4f8e-8c40-17c8a31f7c30}, !- Handle
  {4f27c9e3-fc63-4571-a0dd-7df447d4b60b}, !- Name
  {cbec7f6d-925e-4ee2-82c1-3d5020a1d333}, !- Thermal Zone
  {1c318073-8afc-4e33-8498-ca9526c98e69}, !- Zone Equipment 1
  1,                                      !- Zone Equipment Cooling Sequence 1
  1,                                      !- Zone Equipment Heating or No-Load Sequence 1
  {2a9c79fd-b0b3-48b8-a39f-89bdf9f62969}, !- Zone Equipment 2
  2,                                      !- Zone Equipment Cooling Sequence 2
  2;                                      !- Zone Equipment Heating or No-Load Sequence 2

OS:Space,
  {258a5742-ab11-4a77-a230-d0a2caa465a5}, !- Handle
  Perimeter_mid_ZN_2,                     !- Name
  {4cbfdc5a-a589-4dd9-ab24-cda7e8acd356}, !- Space Type Name
  ,                                       !- Default Construction Set Name
  ,                                       !- Default Schedule Set Name
  0,                                      !- Direction of Relative North {deg}
  0,                                      !- X Origin {m}
  0,                                      !- Y Origin {m}
  0,                                      !- Z Origin {m}
  {76149ef3-ebe9-4428-8c26-3d8cfe9004a6}, !- Building Story Name
  {cbec7f6d-925e-4ee2-82c1-3d5020a1d333}, !- Thermal Zone Name
  Yes,                                    !- Part of Total Floor Area
  {57475b9e-06b1-4f2d-978f-27e62ed1c42b}; !- Design Specification Outdoor Air Object Name

OS:ThermostatSetpoint:DualSetpoint,
  {57c69d6c-ef44-45f7-b1ce-2ae229cd02e7}, !- Handle
  {4a3e4fb2-595f-4032-ba44-edeafff319ad}, !- Name
  {9c308cb7-176b-4229-818d-5be43cfb0949}, !- Heating Setpoint Temperature Schedule Name
  {5de6a709-cdd7-4c8e-b9a6-d0b356eca21e}; !- Cooling Setpoint Temperature Schedule Name

OS:Schedule:Compact,
  {2f579a61-40a3-4496-8111-904034d2b691}, !- Handle
  BLDG_LIGHT_SCH,                         !- Name
  {392954bf-6f49-4624-acc4-ef57807fac10}, !- Schedule Type Limits Name
  Through: 12/31,                         !- Field 1
  For: Weekdays,                          !- Field 2
  Until: 5:00,                            !- Field 3
  0.18,                                   !- Field 4
  Until: 7:00,                            !- Field 5
  0.23,                                   !- Field 6
  Until: 8:00,                            !- Field 7
  0.42,                                   !- Field 8
  Until: 12:00,                           !- Field 9
  0.9,                                    !- Field 10
  Until: 13:00,                           !- Field 11
  0.8,                                    !- Field 12
  Until: 17:00,                           !- Field 13
  0.9,                                    !- Field 14
  Until: 18:00,                           !- Field 15
  0.61,                                   !- Field 16
  Until: 20:00,                           !- Field 17
  0.42,                                   !- Field 18
  Until: 22:00,                           !- Field 19
  0.32,                                   !- Field 20
  Until: 23:00,                           !- Field 21
  0.23,                                   !- Field 22
  Until: 24:00,                           !- Field 23
  0.18,                                   !- Field 24
  For: Weekends,                          !- Field 25
  Until: 24:00,                           !- Field 26
  0.18,                                   !- Field 27
  For: Holiday,                           !- Field 28
  Until: 24:00,                           !- Field 29
  0.18,                                   !- Field 30
  For: WinterDesignDay,                   !- Field 31
  Until: 24:00,                           !- Field 32
  0,                                      !- Field 33
  For: SummerDesignDay,                   !- Field 34
  Until: 24:00,                           !- Field 35
  1;                                      !- Field 36

OS:ScheduleTypeLimits,
  {392954bf-6f49-4624-acc4-ef57807fac10}, !- Handle
  Fraction,                               !- Name
  0,                                      !- Lower Limit Value {BasedOnField A4}
  1,                                      !- Upper Limit Value {BasedOnField A4}
  CONTINUOUS;                             !- Numeric Type

OS:Construction,
  {698ece55-3e27-4cb1-978f-ca22f5f454f2}, !- Handle
  DropCeiling,                            !- Name
  ,                                       !- Surface Rendering Name
  {e6d05274-ecd6-4473-a967-8480d92c85de}; !- Layer 1

OS:Material,
  {e6d05274-ecd6-4473-a967-8480d92c85de}, !- Handle
  Std AC02,                               !- Name
  MediumSmooth,                           !- Roughness
  0.0127,                                 !- Thickness {m}
  0.057,                                  !- Conductivity {W/m-K}
  288,                                    !- Density {kg/m3}
  1339,                                   !- Specific Heat {J/kg-K}
  0.9,                                    !- Thermal Absorptance
  0.7,                                    !- Solar Absorptance
  0.2;                                    !- Visible Absorptance

OS:Surface,
  {68217555-c0ed-48f2-8f30-184c31f03bea}, !- Handle
  Perimeter_bot_ZN_4_Wall_West,           !- Name
  Wall,                                   !- Surface Type
  {4b25ce08-0270-4702-b203-0c81e65c35bc}, !- Construction Name
  {37ce9555-3ae5-4455-a608-cef524cf6ae2}, !- Space Name
  Outdoors,                               !- Outside Boundary Condition
  ,                                       !- Outside Boundary Condition Object
  SunExposed,                             !- Sun Exposure
  WindExposed,                            !- Wind Exposure
  ,                                       !- View Factor to Ground
  ,                                       !- Number of Vertices
  0, 33.2738, 2.7432,                     !- X,Y,Z Vertex 1 {m}
  0, 33.2738, 0,                          !- X,Y,Z Vertex 2 {m}
  0, 0, 0,                                !- X,Y,Z Vertex 3 {m}
  0, 0, 2.7432;                           !- X,Y,Z Vertex 4 {m}

OS:Construction,
  {4b25ce08-0270-4702-b203-0c81e65c35bc}, !- Handle
  Steel Frame Non-res Ext Wall,           !- Name
  ,                                       !- Surface Rendering Name
  {8e155049-c268-4041-aab7-0d8e99270993}, !- Layer 1
  {dd9c745f-3466-46ee-8125-1e7431e3f5b3}, !- Layer 2
  {fcf8c85e-07c6-4f54-95c8-0c7e6fed5916}; !- Layer 3

OS:Material,
  {8e155049-c268-4041-aab7-0d8e99270993}, !- Handle
  Wood Siding,                            !- Name
  MediumSmooth,                           !- Roughness
  0.01,                                   !- Thickness {m}
  0.11,                                   !- Conductivity {W/m-K}
  544.62,                                 !- Density {kg/m3}
  1210,                                   !- Specific Heat {J/kg-K}